Version 4
SHEET 1 1220 856
WIRE -608 -464 -816 -464
WIRE -528 -464 -608 -464
WIRE -288 -464 -432 -464
WIRE -160 -464 -288 -464
WIRE -16 -464 -160 -464
WIRE 144 -464 -16 -464
WIRE 288 -464 240 -464
WIRE 768 -464 384 -464
WIRE -288 -432 -288 -464
WIRE -160 -416 -160 -464
WIRE -16 -416 -16 -464
WIRE -608 -400 -608 -464
WIRE -288 -336 -288 -352
WIRE -448 -288 -448 -416
WIRE -16 -288 -16 -336
WIRE -16 -288 -448 -288
WIRE 160 -288 160 -416
WIRE 160 -288 -16 -288
WIRE 368 -288 368 -416
WIRE 368 -288 160 -288
WIRE -16 -272 -16 -288
WIRE -944 -256 -944 -336
WIRE -816 -256 -816 -464
WIRE -608 -256 -608 -320
WIRE -160 -192 -160 -336
WIRE -64 -192 -160 -192
WIRE -16 -144 -16 -176
WIRE -944 -128 -944 -176
WIRE -816 -128 -816 -176
WIRE -944 -16 -944 -64
WIRE -816 -16 -816 -64
WIRE -816 -16 -944 -16
WIRE 576 -16 512 -16
WIRE 768 -16 768 -464
WIRE 768 -16 640 -16
WIRE -944 16 -944 -16
WIRE 384 112 208 112
WIRE 512 112 512 -16
WIRE 512 112 480 112
WIRE 576 112 512 112
WIRE 768 112 768 -16
WIRE 768 112 640 112
WIRE 1024 112 768 112
WIRE 1136 112 1136 64
WIRE 1136 112 1024 112
WIRE -944 144 -944 80
WIRE 1136 176 1136 112
WIRE 1024 192 1024 112
WIRE -736 240 -848 240
WIRE -544 240 -656 240
WIRE -848 256 -848 240
WIRE -160 256 -160 -192
WIRE 464 256 464 160
WIRE 464 256 -160 256
WIRE -160 272 -160 256
WIRE 1024 304 1024 272
WIRE 1136 304 1136 240
WIRE 1136 304 1024 304
WIRE -672 320 -672 288
WIRE -720 336 -720 288
WIRE 1136 336 1136 304
WIRE -240 352 -256 352
WIRE -208 352 -240 352
WIRE -848 368 -848 336
WIRE -240 400 -240 352
WIRE -160 400 -160 368
WIRE -720 448 -720 416
WIRE -240 496 -240 480
FLAG -288 -336 0
FLAG 1136 336 0
FLAG -720 448 0
FLAG -672 320 0
FLAG -848 368 0
FLAG -544 240 VUSB
FLAG 208 112 VUSB
FLAG -16 -144 0
FLAG 1136 64 VOUT
FLAG -160 400 0
FLAG -256 352 VUSB
FLAG -240 496 0
FLAG -944 144 0
FLAG -944 -336 VUSB
FLAG -608 -256 0
SYMBOL voltage -288 -448 R0
WINDOW 123 0 0 Left 2
WINDOW 39 0 0 Left 2
SYMATTR InstName V1
SYMATTR Value 6
SYMBOL res 1008 176 R0
SYMATTR InstName R7
SYMATTR Value 50
SYMBOL voltage -720 320 R0
WINDOW 123 0 0 Left 2
WINDOW 39 0 0 Left 2
WINDOW 0 -86 105 Left 2
WINDOW 3 -367 139 Left 2
SYMATTR InstName V3
SYMATTR Value PULSE(0 5 .05 .0001 .0001 .1 .2)
SYMBOL sw -640 240 M270
WINDOW 0 62 19 VLeft 2
WINDOW 3 36 23 VLeft 2
SYMATTR InstName SW1
SYMATTR Value USB_PlugInOut
SYMBOL voltage -848 240 R0
WINDOW 123 0 0 Left 2
WINDOW 39 0 0 Left 2
SYMATTR InstName V2
SYMATTR Value 5
SYMBOL res -32 -432 R0
SYMATTR InstName R1
SYMATTR Value 300K
SYMBOL res -176 -432 R0
SYMATTR InstName R2
SYMATTR Value 100K
SYMBOL cap 1120 176 R0
SYMATTR InstName C1
SYMATTR Value 47µF
SYMBOL nmos -64 -272 R0
SYMATTR InstName M1
SYMATTR Value 2N7002
SYMBOL schottky 576 128 R270
WINDOW 0 32 32 VTop 2
WINDOW 3 0 32 VBottom 2
SYMATTR InstName D1
SYMATTR Value MBR0520L
SYMATTR Description Diode
SYMATTR Type diode
SYMBOL PMOS\\IRLML6401 288 -416 R270
SYMATTR InstName U6
SYMBOL PMOS\\IRLML6401 240 -416 M270
SYMATTR InstName U8
SYMBOL nmos -208 272 R0
SYMATTR InstName M2
SYMATTR Value 2N7002
SYMBOL res -256 384 R0
SYMATTR InstName R3
SYMATTR Value 10K
SYMBOL PMOS\\IRLML6401 384 160 R270
SYMATTR InstName U1
SYMBOL schottky 576 0 R270
WINDOW 0 32 32 VTop 2
WINDOW 3 0 32 VBottom 2
SYMATTR InstName D2
SYMATTR Value MBR0520L
SYMATTR Description Diode
SYMATTR Type diode
SYMBOL schottky -832 -128 R0
SYMATTR InstName D3
SYMATTR Value MBR0520L
SYMATTR Description Diode
SYMATTR Type diode
SYMBOL schottky -960 -128 R0
SYMATTR InstName D4
SYMATTR Value MBR0520L
SYMATTR Description Diode
SYMATTR Type diode
SYMBOL LED -960 16 R0
SYMATTR InstName D5
SYMATTR Value LXHL-BW02
SYMATTR Description Diode
SYMATTR Type diode
SYMBOL res -832 -272 R0
SYMATTR InstName R4
SYMATTR Value 330
SYMBOL res -960 -272 R0
SYMATTR InstName R5
SYMATTR Value 220
SYMBOL PMOS\\IRLML6401 -528 -416 R270
SYMATTR InstName U7
SYMBOL res -624 -416 R0
SYMATTR InstName R6
SYMATTR Value 10K
TEXT -448 600 Left 2 !.tran 1
TEXT -448 560 Left 2 !.model USB_PlugInOut SW(Ron=.1 Roff=100Meg Vt=3 Vh=-.5)
